Version 4
SHEET 1 1592 1364
WIRE -208 -64 -272 -64
WIRE -112 -64 -128 -64
WIRE 0 -64 -32 -64
WIRE -832 -32 -832 -48
WIRE -176 64 -176 48
WIRE -832 80 -832 48
WIRE -832 80 -880 80
WIRE -416 80 -592 80
WIRE -272 80 -272 -64
WIRE -272 80 -336 80
WIRE -208 80 -272 80
WIRE 0 96 0 -64
WIRE 0 96 -144 96
WIRE 896 96 0 96
WIRE 992 96 896 96
WIRE -832 112 -832 80
WIRE -208 112 -240 112
WIRE -176 144 -176 128
WIRE -240 160 -240 112
WIRE -832 208 -832 192
WIRE 912 288 16 288
WIRE 752 336 656 336
WIRE 896 336 816 336
WIRE -240 368 -256 368
WIRE -128 368 -160 368
WIRE -16 368 -48 368
WIRE 992 368 992 96
WIRE 1104 368 992 368
WIRE 1280 368 1184 368
WIRE 1328 368 1280 368
WIRE 1552 368 1408 368
WIRE 1568 368 1552 368
WIRE 272 384 208 384
WIRE 416 384 352 384
WIRE 656 416 656 336
WIRE 752 416 656 416
WIRE 896 416 896 336
WIRE 896 416 832 416
WIRE 912 464 912 288
WIRE 1104 464 912 464
WIRE 1280 464 1280 368
WIRE 1280 464 1184 464
WIRE -160 496 -160 480
WIRE -592 512 -592 80
WIRE -384 512 -592 512
WIRE -256 512 -256 368
WIRE -256 512 -320 512
WIRE -192 512 -256 512
WIRE -16 512 -16 368
WIRE 304 512 304 496
WIRE 752 512 752 496
WIRE 1424 512 1424 496
WIRE -16 528 -16 512
WIRE -16 528 -128 528
WIRE 16 528 16 288
WIRE 16 528 -16 528
WIRE 64 528 16 528
WIRE 208 528 208 384
WIRE 208 528 144 528
WIRE 272 528 208 528
WIRE 416 528 416 384
WIRE 448 528 416 528
WIRE 560 528 528 528
WIRE 656 528 656 416
WIRE 656 528 624 528
WIRE 720 528 656 528
WIRE 1280 528 1280 464
WIRE 1392 528 1280 528
WIRE -192 544 -224 544
WIRE 416 544 416 528
WIRE 416 544 336 544
WIRE 896 544 896 416
WIRE 896 544 784 544
WIRE 912 544 896 544
WIRE 1568 544 1568 368
WIRE 1568 544 1456 544
WIRE 272 560 240 560
WIRE 720 560 688 560
WIRE 912 560 912 544
WIRE 960 560 912 560
WIRE 1104 560 960 560
WIRE 1280 560 1280 528
WIRE 1280 560 1184 560
WIRE 1392 560 1360 560
WIRE -944 576 -1008 576
WIRE -768 576 -864 576
WIRE -160 576 -160 560
WIRE -224 592 -224 544
WIRE 304 592 304 576
WIRE 752 592 752 576
WIRE 1424 592 1424 576
WIRE 240 608 240 560
WIRE 688 608 688 560
WIRE 1360 608 1360 560
WIRE -1216 656 -1344 656
WIRE -1152 656 -1216 656
WIRE -1008 656 -1008 576
WIRE -1008 656 -1072 656
WIRE 1104 672 992 672
WIRE 1280 672 1280 560
WIRE 1280 672 1184 672
WIRE -1344 688 -1344 656
WIRE -912 704 -912 688
WIRE -1008 720 -1008 656
WIRE -944 720 -1008 720
WIRE -192 720 -256 720
WIRE -16 720 -112 720
WIRE -768 736 -768 576
WIRE -768 736 -880 736
WIRE -592 736 -592 512
WIRE -592 736 -768 736
WIRE -1232 752 -1344 752
WIRE -1152 752 -1232 752
WIRE -1024 752 -1072 752
WIRE -944 752 -1024 752
WIRE -1344 784 -1344 752
WIRE -912 784 -912 768
WIRE -1024 800 -1024 752
WIRE -256 832 -256 720
WIRE -176 832 -256 832
WIRE -16 832 -16 720
WIRE -16 832 -112 832
WIRE -592 864 -592 736
WIRE -1344 896 -1344 864
WIRE -1024 896 -1024 880
WIRE -160 960 -160 944
WIRE -592 976 -592 864
WIRE -400 976 -592 976
WIRE -256 976 -256 832
WIRE -256 976 -320 976
WIRE -192 976 -256 976
WIRE -16 992 -16 832
WIRE -16 992 -128 992
WIRE 720 992 -16 992
WIRE 992 992 992 672
WIRE 992 992 720 992
WIRE -192 1008 -224 1008
WIRE -160 1040 -160 1024
WIRE -224 1056 -224 1008
FLAG -240 160 0
FLAG -880 80 0
FLAG -832 208 VCC-
FLAG -832 -48 VCC+
FLAG -176 48 VCC+
FLAG -176 144 VCC-
FLAG -1344 896 0
FLAG -224 592 0
FLAG -160 480 VCC+
FLAG -160 576 VCC-
FLAG -224 1056 0
FLAG -160 944 VCC+
FLAG -160 1040 VCC-
FLAG 688 608 0
FLAG 752 496 VCC+
FLAG 752 592 VCC-
FLAG 1360 608 0
FLAG 1424 496 VCC+
FLAG 1424 592 VCC-
FLAG 896 96 PROP
FLAG 1552 368 OUT
FLAG -16 512 DER1
FLAG 960 560 DER2
FLAG 720 992 INT
FLAG -592 864 IN
FLAG 240 608 0
FLAG 304 496 VCC+
FLAG 304 592 VCC-
FLAG -912 688 VCC+
FLAG -912 784 VCC-
FLAG -1024 896 0
FLAG -1232 752 REF
FLAG -1216 656 NEG_FB
FLAG -1344 688 0
SYMBOL Opamps\\opamp2 -176 32 R0
SYMATTR InstName U1
SYMATTR Value TL084
SYMBOL res -432 64 M90
WINDOW 0 0 56 VBottom 2
WINDOW 3 32 56 VTop 2
SYMATTR InstName R1
SYMATTR Value 1k
SYMBOL voltage -1344 768 R0
WINDOW 3 24 152 Left 2
WINDOW 123 24 124 Left 2
WINDOW 39 0 0 Left 0
SYMATTR Value 0.001
SYMATTR Value2 AC 1
SYMATTR InstName V1
SYMBOL voltage -832 -48 R0
WINDOW 123 0 0 Left 0
WINDOW 39 0 0 Left 0
SYMATTR InstName V2
SYMATTR Value 15
SYMBOL voltage -832 96 R0
WINDOW 123 0 0 Left 0
WINDOW 39 0 0 Left 0
SYMATTR InstName V3
SYMATTR Value 15
SYMBOL res -112 -80 R90
WINDOW 0 0 56 VBottom 2
WINDOW 3 32 56 VTop 2
SYMATTR InstName R3
SYMATTR Value 2.4k
SYMBOL Opamps\\opamp2 -160 464 R0
SYMATTR InstName U2
SYMATTR Value TL084
SYMBOL res -144 352 R90
WINDOW 0 0 56 VBottom 2
WINDOW 3 32 56 VTop 2
SYMATTR InstName R6
SYMATTR Value 910
SYMBOL cap -320 496 R90
WINDOW 0 0 32 VBottom 2
WINDOW 3 32 32 VTop 2
SYMATTR InstName C1
SYMATTR Value 150n
SYMBOL Opamps\\opamp2 -160 928 R0
SYMATTR InstName U3
SYMATTR Value TL084
SYMBOL res -304 960 R90
WINDOW 0 0 56 VBottom 2
WINDOW 3 32 56 VTop 2
SYMATTR InstName R7
SYMATTR Value 220
SYMBOL cap -112 816 R90
WINDOW 0 0 32 VBottom 2
WINDOW 3 32 32 VTop 2
SYMATTR InstName C2
SYMATTR Value 1µ
SYMBOL res -96 704 R90
WINDOW 0 0 56 VBottom 2
WINDOW 3 32 56 VTop 2
SYMATTR InstName R8
SYMATTR Value 16k
SYMBOL Opamps\\opamp2 752 480 R0
SYMATTR InstName U4
SYMATTR Value TL084
SYMBOL res 848 400 R90
WINDOW 0 0 56 VBottom 2
WINDOW 3 32 56 VTop 2
SYMATTR InstName R10
SYMATTR Value 1k
SYMBOL cap 624 512 R90
WINDOW 0 0 32 VBottom 2
WINDOW 3 32 32 VTop 2
SYMATTR InstName C3
SYMATTR Value 120n
SYMBOL Opamps\\opamp2 1424 480 R0
SYMATTR InstName U5
SYMATTR Value TL084
SYMBOL res 1424 352 R90
WINDOW 0 0 56 VBottom 2
WINDOW 3 32 56 VTop 2
SYMATTR InstName R2
SYMATTR Value {Rsum}
SYMBOL res 1200 352 R90
WINDOW 0 0 56 VBottom 2
WINDOW 3 32 56 VTop 2
SYMATTR InstName R4
SYMATTR Value {Rsum}
SYMBOL res 1200 448 R90
WINDOW 0 0 56 VBottom 2
WINDOW 3 32 56 VTop 2
SYMATTR InstName R5
SYMATTR Value {Rsum}
SYMBOL res 1200 544 R90
WINDOW 0 0 56 VBottom 2
WINDOW 3 32 56 VTop 2
SYMATTR InstName R9
SYMATTR Value {Rsum}
SYMBOL res 1200 656 R90
WINDOW 0 0 56 VBottom 2
WINDOW 3 32 56 VTop 2
SYMATTR InstName R11
SYMATTR Value {Rsum}
SYMBOL Opamps\\opamp2 304 480 R0
SYMATTR InstName U7
SYMATTR Value TL084
SYMBOL res 48 512 M90
WINDOW 0 0 56 VBottom 2
WINDOW 3 32 56 VTop 2
SYMATTR InstName R12
SYMATTR Value 1k
SYMBOL res 368 368 R90
WINDOW 0 0 56 VBottom 2
WINDOW 3 32 56 VTop 2
SYMATTR InstName R13
SYMATTR Value 1k
SYMBOL Opamps\\opamp2 -912 672 R0
SYMATTR InstName U6
SYMATTR Value TL084
SYMBOL res -848 560 R90
WINDOW 0 0 56 VBottom 2
WINDOW 3 32 56 VTop 2
SYMATTR InstName R14
SYMATTR Value 1k
SYMBOL res -1056 736 R90
WINDOW 0 0 56 VBottom 2
WINDOW 3 32 56 VTop 2
SYMATTR InstName R15
SYMATTR Value 1k
SYMBOL res -1008 896 R180
WINDOW 0 36 76 Left 2
WINDOW 3 36 40 Left 2
SYMATTR InstName R16
SYMATTR Value 1k
SYMBOL res -1056 640 R90
WINDOW 0 0 56 VBottom 2
WINDOW 3 32 56 VTop 2
SYMATTR InstName R17
SYMATTR Value 1k
SYMBOL res -16 -80 R90
WINDOW 0 0 56 VBottom 2
WINDOW 3 32 56 VTop 2
SYMATTR InstName R18
SYMATTR Value 180
SYMBOL res -32 352 R90
WINDOW 0 0 56 VBottom 2
WINDOW 3 32 56 VTop 2
SYMATTR InstName R19
SYMATTR Value 51
SYMBOL res 544 512 R90
WINDOW 0 0 56 VBottom 2
WINDOW 3 32 56 VTop 2
SYMATTR InstName R20
SYMATTR Value 100
SYMBOL cap 816 320 R90
WINDOW 0 0 32 VBottom 2
WINDOW 3 32 32 VTop 2
SYMATTR InstName C4
SYMATTR Value 1e-9
TEXT -960 392 Left 2 !.ac dec 100 1e0 1e6
TEXT -960 432 Left 2 !.inc TL084.301
TEXT 48 344 Left 4 ;Inverter
TEXT -488 376 Left 4 ;Derivative
TEXT -488 840 Left 4 ;Integrator
TEXT 496 336 Left 4 ;Derivative
TEXT 1224 176 Left 2 !.param Rsum=1e3
TEXT 1192 272 Left 4 ;Summer
TEXT -968 472 Left 2 !;tran 10m
